Pcp_File_Version=4
*** BLOCK I: ATMOSPHERIC INFORMATION  **********************************
   MaxAL                    (MaxAL = number of atmospheric data-records)
     24
 DailyVar  SinusVar  lLay  lBCCycles lInterc lDummy  lDummy  lDummy  lDummy  lDummy
       f       f       f       f       f       f       f       f       f       f
 hCritS                 (max. allowed pressure head at the soil surface)
  15000
       tAtm        Prec       rSoil       rRoot      hCritA          rB          hB          ht    RootDepth
      0.0417       0.000      0.0000      0.0005       15000      0.0000      0.0000      0.0000      0.0000
      0.0833       0.000      0.0000      0.0000       15000      0.0000      0.0000      0.0000      0.0000
      0.1250       0.000      0.0000      0.0000       15000      0.0000      0.0000      0.0000      0.0000
      0.1667       0.000      0.0000      0.0000       15000      0.0000      0.0000      0.0000      0.0000
      0.2083       0.000      0.0000      0.0000       15000      0.0000      0.0000      0.0000      0.0000
      0.2500       0.000      0.0000      0.0303       15000      0.0000      0.0000      0.0000      0.0000
      0.2917       0.000      0.0000      0.0915       15000      0.0000      0.0000      0.0000      0.0000
      0.3333       0.000      0.0000      0.0962       15000      0.0000      0.0000      0.0000      0.0000
      0.3750       0.000      0.0000      0.0737       15000      0.0000      0.0000      0.0000      0.0000
      0.4167       0.000      0.0000      0.0701       15000      0.0000      0.0000      0.0000      0.0000
      0.4583       0.000      0.0000      0.1594       15000      0.0000      0.0000      0.0000      0.0000
      0.5000       0.000      0.0000      0.1939       15000      0.0000      0.0000      0.0000      0.0000
      0.5417       0.000      0.0000      0.1866       15000      0.0000      0.0000      0.0000      0.0000
      0.5833       0.000      0.0000      0.1375       15000      0.0000      0.0000      0.0000      0.0000
      0.6250       0.000      0.0000      0.0559       15000      0.0000      0.0000      0.0000      0.0000
      0.6667       0.000      0.0000      0.0439       15000      0.0000      0.0000      0.0000      0.0000
      0.7083       0.000      0.0000      0.0366       15000      0.0000      0.0000      0.0000      0.0000
      0.7500       0.000      0.0000      0.0293       15000      0.0000      0.0000      0.0000      0.0000
      0.7917       0.000      0.0000      0.0214       15000      0.0000      0.0000      0.0000      0.0000
      0.8333       0.000      0.0000      0.0136       15000      0.0000      0.0000      0.0000      0.0000
      0.8750       0.000      0.0000      0.0110       15000      0.0000      0.0000      0.0000      0.0000
      0.9167       0.000      0.0000      0.0073       15000      0.0000      0.0000      0.0000      0.0000
      0.9583       0.000      0.0000      0.0047       15000      0.0000      0.0000      0.0000      0.0000
      1.0000       0.000      0.0000      0.0073       15000      0.0000      0.0000      0.0000      0.0000
end*** END OF INPUT FILE 'ATMOSPH.IN' **********************************
