Pcp_File_Version=4
*** BLOCK I: ATMOSPHERIC INFORMATION  **********************************
   MaxAL                    (MaxAL = number of atmospheric data-records)
     24
 DailyVar  SinusVar  lLay  lBCCycles lInterc lDummy  lDummy  lDummy  lDummy  lDummy
       f       f       f       f       f       f       f       f       f       f
 hCritS                 (max. allowed pressure head at the soil surface)
  15000
       tAtm        Prec       rSoil       rRoot      hCritA          rB          hB          ht    RootDepth
  0.0416667           0           0        0.05       15000           0           0           0 
  0.0833333        0.01           0         0.1       15000           0           0           0 
      0.125           0           0        0.12       15000           0           0           0 
   0.166667           0           0        0.18       15000           0           0           0 
   0.208333         0.2           0         0.2       15000           0           0           0 
       0.25           0           0        0.22       15000           0           0           0 
   0.291667        0.02           0        0.24       15000           0           0           0 
   0.333333           0           0        0.25       15000           0           0           0 
      0.375           0           0         0.3       15000           0           0           0 
   0.416667        0.01           0        0.31       15000           0           0           0 
   0.458333           0           0        0.35       15000           0           0           0 
        0.5           0           0           0       15000           0           0           0 
   0.541667           0           0           0       15000           0           0           0 
   0.583333           0           0           0       15000           0           0           0 
      0.625           0           0           0       15000           0           0           0 
   0.666667           0           0           0       15000           0           0           0 
   0.708333           0           0           0       15000           0           0           0 
       0.75           0           0           0       15000           0           0           0 
   0.791667           0           0           0       15000           0           0           0 
   0.833333           0           0           0       15000           0           0           0 
      0.875           0           0           0       15000           0           0           0 
   0.916667           0           0           0       15000           0           0           0 
   0.958333           0           0           0       15000           0           0           0 
          1           0           0           0       15000           0           0           0 
end*** END OF INPUT FILE 'ATMOSPH.IN' **********************************
