Pcp_File_Version=4
*** BLOCK I: ATMOSPHERIC INFORMATION  **********************************
   MaxAL                    (MaxAL = number of atmospheric data-records)
     24
 DailyVar  SinusVar  lLay  lBCCycles lInterc lDummy  lDummy  lDummy  lDummy  lDummy
       f       f       f       f       f       f       f       f       f       f
 hCritS                 (max. allowed pressure head at the soil surface)
  15000
       tAtm        Prec       rSoil       rRoot      hCritA          rB          hB          ht    RootDepth
      0.0417       0.000      0.0000      0.0004      150000      0.0000      0.0000      0.0000      0.0000
      0.0833       0.000      0.0000      0.0000      150000      0.0000      0.0000      0.0000      0.0000
      0.1250       0.000      0.0000      0.0000      150000      0.0000      0.0000      0.0000      0.0000
      0.1667       0.000      0.0000      0.0000      150000      0.0000      0.0000      0.0000      0.0000
      0.2083       0.000      0.0000      0.0000      150000      0.0000      0.0000      0.0000      0.0000
      0.2500       0.000      0.0000      0.0248      150000      0.0000      0.0000      0.0000      0.0000
      0.2917       0.000      0.0000      0.0747      150000      0.0000      0.0000      0.0000      0.0000
      0.3333       0.000      0.0000      0.0785      150000      0.0000      0.0000      0.0000      0.0000
      0.3750       0.000      0.0000      0.0602      150000      0.0000      0.0000      0.0000      0.0000
      0.4167       0.000      0.0000      0.0572      150000      0.0000      0.0000      0.0000      0.0000
      0.4583       0.000      0.0000      0.1302      150000      0.0000      0.0000      0.0000      0.0000
      0.5000       0.000      0.0000      0.1583      150000      0.0000      0.0000      0.0000      0.0000
      0.5417       0.000      0.0000      0.1524      150000      0.0000      0.0000      0.0000      0.0000
      0.5833       0.000      0.0000      0.1122      150000      0.0000      0.0000      0.0000      0.0000
      0.6250       0.000      0.0000      0.0457      150000      0.0000      0.0000      0.0000      0.0000
      0.6667       0.000      0.0000      0.0358      150000      0.0000      0.0000      0.0000      0.0000
      0.7083       0.000      0.0000      0.0299      150000      0.0000      0.0000      0.0000      0.0000
      0.7500       0.000      0.0000      0.0239      150000      0.0000      0.0000      0.0000      0.0000
      0.7917       0.000      0.0000      0.0175      150000      0.0000      0.0000      0.0000      0.0000
      0.8333       0.000      0.0000      0.0111      150000      0.0000      0.0000      0.0000      0.0000
      0.8750       0.000      0.0000      0.0090      150000      0.0000      0.0000      0.0000      0.0000
      0.9167       0.000      0.0000      0.0060      150000      0.0000      0.0000      0.0000      0.0000
      0.9583       0.000      0.0000      0.0038      150000      0.0000      0.0000      0.0000      0.0000
      1.0000       0.000      0.0000      0.0060      150000      0.0000      0.0000      0.0000      0.0000
end*** END OF INPUT FILE 'ATMOSPH.IN' **********************************
