Pcp_File_Version=4
*** BLOCK I: ATMOSPHERIC INFORMATION  **********************************
   MaxAL                    (MaxAL = number of atmospheric data-records)
     24
 DailyVar  SinusVar  lLay  lBCCycles lInterc lDummy  lDummy  lDummy  lDummy  lDummy
       f       f       f       f       f       f       f       f       f       f
 hCritS                 (max. allowed pressure head at the soil surface)
  15000
       tAtm        Prec       rSoil       rRoot      hCritA          rB          hB          ht    RootDepth
      0.0417       0.000      0.0000      0.0005      150000      0.0000      0.0000      0.0000      0.0000
      0.0833       0.000      0.0000      0.0000      150000      0.0000      0.0000      0.0000      0.0000
      0.1250       0.000      0.0000      0.0000      150000      0.0000      0.0000      0.0000      0.0000
      0.1667       0.000      0.0000      0.0000      150000      0.0000      0.0000      0.0000      0.0000
      0.2083       0.000      0.0000      0.0000      150000      0.0000      0.0000      0.0000      0.0000
      0.2500       0.000      0.0000      0.0271      150000      0.0000      0.0000      0.0000      0.0000
      0.2917       0.000      0.0000      0.0819      150000      0.0000      0.0000      0.0000      0.0000
      0.3333       0.000      0.0000      0.0861      150000      0.0000      0.0000      0.0000      0.0000
      0.3750       0.000      0.0000      0.0660      150000      0.0000      0.0000      0.0000      0.0000
      0.4167       0.000      0.0000      0.0627      150000      0.0000      0.0000      0.0000      0.0000
      0.4583       0.000      0.0000      0.1427      150000      0.0000      0.0000      0.0000      0.0000
      0.5000       0.000      0.0000      0.1736      150000      0.0000      0.0000      0.0000      0.0000
      0.5417       0.000      0.0000      0.1670      150000      0.0000      0.0000      0.0000      0.0000
      0.5833       0.000      0.0000      0.1231      150000      0.0000      0.0000      0.0000      0.0000
      0.6250       0.000      0.0000      0.0501      150000      0.0000      0.0000      0.0000      0.0000
      0.6667       0.000      0.0000      0.0393      150000      0.0000      0.0000      0.0000      0.0000
      0.7083       0.000      0.0000      0.0328      150000      0.0000      0.0000      0.0000      0.0000
      0.7500       0.000      0.0000      0.0262      150000      0.0000      0.0000      0.0000      0.0000
      0.7917       0.000      0.0000      0.0192      150000      0.0000      0.0000      0.0000      0.0000
      0.8333       0.000      0.0000      0.0122      150000      0.0000      0.0000      0.0000      0.0000
      0.8750       0.000      0.0000      0.0098      150000      0.0000      0.0000      0.0000      0.0000
      0.9167       0.000      0.0000      0.0066      150000      0.0000      0.0000      0.0000      0.0000
      0.9583       0.000      0.0000      0.0042      150000      0.0000      0.0000      0.0000      0.0000
      1.0000       0.000      0.0000      0.0066      150000      0.0000      0.0000      0.0000      0.0000
end*** END OF INPUT FILE 'ATMOSPH.IN' **********************************
